# Output control package file for MODFLOW, generated by Flopy. Output control by words option
HEAD PRINT FORMAT   1
HEAD SAVE UNIT    51
DRAWDOWN PRINT FORMAT   1
DRAWDOWN SAVE UNIT    52

PERIOD     1 STEP     1
  PRINT BUDGET
  SAVE HEAD
  SAVE BUDGET

